
 Fire Dynamics Simulator

 Current Date     : September 14, 2023  15:28:23
 Revision         : FDS6.7.9-0-gec52dee42-release
 Revision Date    : Sun Jun 26 14:36:40 2022 -0400
 Compiler         : 
 Compilation Date : Tue 06/28/2022  11:17 PM

 MPI Enabled;    Number of MPI Processes:       4
 OpenMP Enabled; Number of OpenMP Threads:     23

 MPI version: 3.1
 MPI library version: Intel(R) MPI Library 2021.6 for Windows* OS


 Job TITLE        : 
 Job ID string    : NHBC_8x10_Base_Model


 Grid Dimensions, Mesh     1

   Cells in the X Direction            60
   Cells in the Y Direction            40
   Cells in the Z Direction            23
   Number of Grid Cells             55200


 Physical Dimensions, Mesh     1

   Length (m)                       6.000
   Width  (m)                       4.000
   Height (m)                       2.300
   Initial Time Step (s)            0.104

 Grid Dimensions, Mesh     2

   Cells in the X Direction            60
   Cells in the Y Direction            46
   Cells in the Z Direction            23
   Number of Grid Cells             63480


 Physical Dimensions, Mesh     2

   Length (m)                       6.000
   Width  (m)                       4.600
   Height (m)                       2.300
   Initial Time Step (s)            0.104

 Grid Dimensions, Mesh     3

   Cells in the X Direction            40
   Cells in the Y Direction            40
   Cells in the Z Direction            23
   Number of Grid Cells             36800


 Physical Dimensions, Mesh     3

   Length (m)                       4.000
   Width  (m)                       4.000
   Height (m)                       2.300
   Initial Time Step (s)            0.104

 Grid Dimensions, Mesh     4

   Cells in the X Direction            40
   Cells in the Y Direction            46
   Cells in the Z Direction            23
   Number of Grid Cells             42320


 Physical Dimensions, Mesh     4

   Length (m)                       4.000
   Width  (m)                       4.600
   Height (m)                       2.300
   Initial Time Step (s)            0.104

 Total Number of Grid Cells        197800


 Maximum Cell Aspect Ratio          1.000
 CFL Velocity Norm                      2


 Miscellaneous Parameters

   Simulation Start Time (s)          0.0
   Simulation End Time (s)         1200.0
   Background Pressure (Pa)     101325.00
   Ambient Temperature (C)          20.00

   3D Cartesian
   VLES Calculation
   Eddy Viscosity: Deardorff Model (C_DEARDORFF = 0.10)
   Surface Gypsum Eddy Viscosity: WALE Model (C_WALE = 0.60)
   Turbulent Prandtl Number:         0.50
   Turbulent Schmidt Number:         0.50


 Background Stratification

      Z (m)     P_0 (Pa)    TMP_0 (C)
   ------------------------------------
        2.25    101298.63     20.00
        2.15    101299.80     20.00
        2.05    101300.97     20.00
        1.95    101302.14     20.00
        1.85    101303.31     20.00
        1.75    101304.49     20.00
        1.65    101305.66     20.00
        1.55    101306.83     20.00
        1.45    101308.00     20.00
        1.35    101309.17     20.00
        1.25    101310.35     20.00
        1.15    101311.52     20.00
        1.05    101312.69     20.00
        0.95    101313.86     20.00
        0.85    101315.03     20.00
        0.75    101316.21     20.00
        0.65    101317.38     20.00
        0.55    101318.55     20.00
        0.45    101319.72     20.00
        0.35    101320.89     20.00
        0.25    101322.07     20.00
        0.15    101323.24     20.00
        0.05    101324.41     20.00


 Mass Fraction Transformation Matrix to Convert Species Mixtures (Columns) to Primitive Species (Rows)

                         AIR       REAC_FUE  PRODUCTS  WATER VA
   REAC_FUEL             0.000000  1.000000  0.000000  0.000000
   NITROGEN              0.762470  0.000000  0.649415  0.000000
   OXYGEN                0.230997  0.000000  0.000000  0.000000
   CARBON DIOXIDE        0.000591  0.000000  0.247511  0.000000
   WATER VAPOR           0.005941  0.000000  0.099734  1.000000
   CARBON MONOXIDE       0.000000  0.000000  0.000952  0.000000
   SOOT                  0.000000  0.000000  0.002381  0.000000
   HYDROGEN              0.000000  0.000000  0.000000  0.000000
   HYDROGEN CYANIDE      0.000000  0.000000  0.000007  0.000000


 Primitive Species Information

   REAC_FUEL
   Gas Species
   Molecular Weight (g/mol)            87.44852
   Ambient Density (kg/m^3)            3.635
   Enthalpy of Formation (J/kg)       -5.33E+06

   NITROGEN
   Gas Species
   Molecular Weight (g/mol)            28.01340
   Ambient Density (kg/m^3)            1.165
   Enthalpy of Formation (J/kg)        0.00E+00

   OXYGEN
   Gas Species
   Molecular Weight (g/mol)            31.99880
   Ambient Density (kg/m^3)            1.330
   Enthalpy of Formation (J/kg)        0.00E+00

   CARBON DIOXIDE
   Gas Species
   Molecular Weight (g/mol)            44.00950
   Ambient Density (kg/m^3)            1.830
   Enthalpy of Formation (J/kg)       -8.94E+06

   WATER VAPOR
   Gas Species
   Molecular Weight (g/mol)            18.01528
   Ambient Density (kg/m^3)            0.749
   Enthalpy of Formation (J/kg)       -1.34E+07

   CARBON MONOXIDE
   Gas Species
   Molecular Weight (g/mol)            28.01010
   Ambient Density (kg/m^3)            1.164
   Enthalpy of Formation (J/kg)       -3.95E+06

   SOOT
   Gas Species
   Molecular Weight (g/mol)            10.91042
   Ambient Density (kg/m^3)            0.454
   Enthalpy of Formation (J/kg)        0.00E+00

   HYDROGEN
   Gas Species
   Molecular Weight (g/mol)             2.01588
   Ambient Density (kg/m^3)            0.084
   Enthalpy of Formation (J/kg)        0.00E+00

   HYDROGEN CYANIDE
   Gas Species
   Molecular Weight (g/mol)            27.02534
   Ambient Density (kg/m^3)            1.123
   Enthalpy of Formation (J/kg)        4.92E+06


 Tracked (Lumped) Species Information

   AIR
   Molecular Weight (g/mol)            28.75198
   Ambient Density (kg/m^3)            1.195
   Initial Mass Fraction               1.000
   Enthalpy of Formation (J/kg)     -8.50E+04

   Sub Species                    Mass Fraction     Mole Fraction
   NITROGEN                       7.624699E-01      7.825727E-01
   OXYGEN                         2.309974E-01      2.075588E-01
   CARBON DIOXIDE                 5.914650E-04      3.864118E-04
   WATER VAPOR                    5.941209E-03      9.482037E-03
 
     Viscosity (kg/m/s) Ambient,  293 K:  1.80E-05
                                  500 K:  2.61E-05
                                 1000 K:  4.13E-05
                                 1500 K:  5.37E-05
   Therm. Cond. (W/m/K) Ambient,  293 K:  2.56E-02
                                  500 K:  3.81E-02
                                 1000 K:  6.69E-02
                                 1500 K:  9.25E-02
        Enthalpy (J/kg) Ambient,  293 K: -9.01E+04
                                  500 K:  1.22E+05
                                 1000 K:  6.72E+05
                                 1500 K:  1.27E+06
    Spec. Heat (J/kg/K) Ambient,  293 K:  1.02E+03
                                  500 K:  1.04E+03
                                 1000 K:  1.16E+03
                                 1500 K:  1.23E+03
   Diff. Coeff. (m^2/s) Ambient,  293 K:  1.99E-05
                                  500 K:  4.96E-05
                                 1000 K:  1.58E-04
                                 1500 K:  3.09E-04

   REAC_FUEL
   Molecular Weight (g/mol)            87.44852
   Ambient Density (kg/m^3)            3.635
   Initial Mass Fraction               0.000
   Enthalpy of Formation (J/kg)     -5.33E+06

   Sub Species                    Mass Fraction     Mole Fraction
   REAC_FUEL                      1.000000E+00      1.000000E+00
 
     Viscosity (kg/m/s) Ambient,  293 K:  3.07E-05
                                  500 K:  4.44E-05
                                 1000 K:  6.98E-05
                                 1500 K:  9.08E-05
   Therm. Cond. (W/m/K) Ambient,  293 K:  1.44E-02
                                  500 K:  2.08E-02
                                 1000 K:  3.27E-02
                                 1500 K:  4.25E-02
        Enthalpy (J/kg) Ambient,  293 K: -5.33E+06
                                  500 K: -5.27E+06
                                 1000 K: -5.10E+06
                                 1500 K: -4.93E+06
    Spec. Heat (J/kg/K) Ambient,  293 K:  3.33E+02
                                  500 K:  3.33E+02
                                 1000 K:  3.33E+02
                                 1500 K:  3.33E+02
   Diff. Coeff. (m^2/s) Ambient,  293 K:  1.61E-05
                                  500 K:  4.01E-05
                                 1000 K:  1.27E-04
                                 1500 K:  2.49E-04

   PRODUCTS
   Molecular Weight (g/mol)            28.90600
   Ambient Density (kg/m^3)            1.202
   Initial Mass Fraction               0.000
   Enthalpy of Formation (J/kg)     -3.56E+06

   Sub Species                    Mass Fraction     Mole Fraction
   NITROGEN                       6.494146E-01      6.701072E-01
   CARBON DIOXIDE                 2.475107E-01      1.625682E-01
   WATER VAPOR                    9.973412E-02      1.600261E-01
   CARBON MONOXIDE                9.523293E-04      9.827896E-04
   SOOT                           2.380823E-03      6.307737E-03
   HYDROGEN CYANIDE               7.440073E-06      7.957820E-06
 
     Viscosity (kg/m/s) Ambient,  293 K:  1.60E-05
                                  500 K:  2.38E-05
                                 1000 K:  3.89E-05
                                 1500 K:  5.14E-05
   Therm. Cond. (W/m/K) Ambient,  293 K:  2.29E-02
                                  500 K:  3.59E-02
                                 1000 K:  6.71E-02
                                 1500 K:  9.63E-02
        Enthalpy (J/kg) Ambient,  293 K: -3.56E+06
                                  500 K: -3.33E+06
                                 1000 K: -2.72E+06
                                 1500 K: -2.05E+06
    Spec. Heat (J/kg/K) Ambient,  293 K:  1.07E+03
                                  500 K:  1.14E+03
                                 1000 K:  1.30E+03
                                 1500 K:  1.40E+03
   Diff. Coeff. (m^2/s) Ambient,  293 K:  1.93E-05
                                  500 K:  4.91E-05
                                 1000 K:  1.59E-04
                                 1500 K:  3.12E-04

   WATER VAPOR
   Molecular Weight (g/mol)            18.01528
   Ambient Density (kg/m^3)            0.749
   Initial Mass Fraction               0.000
   Enthalpy of Formation (J/kg)     -1.34E+07

   Sub Species                    Mass Fraction     Mole Fraction
   WATER VAPOR                    1.000000E+00      1.000000E+00
 
     Viscosity (kg/m/s) Ambient,  293 K:  1.05E-05
                                  500 K:  1.77E-05
                                 1000 K:  3.58E-05
                                 1500 K:  5.21E-05
   Therm. Cond. (W/m/K) Ambient,  293 K:  1.96E-02
                                  500 K:  3.46E-02
                                 1000 K:  8.21E-02
                                 1500 K:  1.37E-01
        Enthalpy (J/kg) Ambient,  293 K: -1.34E+07
                                  500 K: -1.30E+07
                                 1000 K: -1.20E+07
                                 1500 K: -1.07E+07
    Spec. Heat (J/kg/K) Ambient,  293 K:  1.86E+03
                                  500 K:  1.96E+03
                                 1000 K:  2.29E+03
                                 1500 K:  2.63E+03
   Diff. Coeff. (m^2/s) Ambient,  293 K:  2.10E-05
                                  500 K:  5.78E-05
                                 1000 K:  1.98E-04
                                 1500 K:  3.95E-04
 
   Liq. Enthalpy (J/kg)     Melt  273 K: -1.60E+07
                                  323 K: -1.58E+07
                            Boil  373 K: -1.56E+07
 
   Liq. Spec. Heat (J/kg/K) Melt  273 K:  4.23E+03
                                  323 K:  4.18E+03
                            Boil  373 K:  4.22E+03
 
   Heat of Vapor. (J/kg)    Melt  273 K:  2.50E+06
                                  323 K:  2.39E+06
                            Boil  373 K:  2.27E+06


 Gas Phase Reaction Information

      Fuel                                           Heat of Combustion (kJ/kg)
      REAC_FUEL                                                      18075.6400

      Primitive Species Stoich. Coeff.
      Species ID                                                          Molar
      REAC_FUEL                                                       -1.000000
      NITROGEN                                                         0.008419
      OXYGEN                                                          -3.611183
      CARBON DIOXIDE                                                   3.298439
      WATER VAPOR                                                      3.088507
      CARBON MONOXIDE                                                  0.019981
      SOOT                                                             0.128242
      HYDROGEN CYANIDE                                                 0.000162

      Tracked (Lumped) Species Stoich. Coeff.
      Species ID                                             Molar         Mass
      AIR                                               -17.398361    -5.720364
      REAC_FUEL                                          -1.000000    -1.000000
      PRODUCTS                                           20.330928     6.720364

      Reaction Kinetics

      Fast chemistry

      ODE Solver:  EXPLICIT EULER
      Extinction Model:  EXTINCTION 2
      Auto-Ignition Temperature (K):       0.0
      Critical Flame Temperature (K):   1700.2

      Prescribed Radiative Fraction:     0.350


 Material Information

   1 GYPSUM PLASTER
     Quintiere
     Emissivity                      0.900
     Density (kg/m3)                1440.0
     Specific Heat (kJ/kg/K)       8.40E-01
     Conductivity (W/m/K)          4.80E-01


 Surface Conditions

   0 INERT

   1 Gypsum (DEFAULT)
     Material List
          1  GYPSUM PLASTER
     Layer  1
        Thickness   (m):  0.02500
        Density (kg/m3):  1440.00
        GYPSUM PLASTER, Mass fraction:    1.00
     Total surface density    36.000 kg/m2
     Solid Phase Node, Layer, Coordinates(m):
                    0      1       0.0000000
                    1      1       0.0005435
                    2      1       0.0016304
                    3      1       0.0038043
                    4      1       0.0081522
                    5      1       0.0168478
                    6      1       0.0211957
                    7      1       0.0233696
                    8      1       0.0244565
                    9      1       0.0250000
     Insulated Backing

   2 OPEN
     Passive Vent to Atmosphere

   3 MIRROR
     Symmetry Plane

   4 INTERPOLATED

   5 PERIODIC

   6 HVAC

   7 MASSLESS TRACER

   8 DROPLET

   9 MASSLESS TARGET

  10 PERIODIC FLOW ONLY


 Lagrangian Particle Classes

   1 Water
     SURFace ID: DROPLET
     # Reals: 83
     # Integers: 26
     # Logicals: 5

   2 RESERVED TARGET PARTICLE
     SURFace ID: MASSLESS TARGET
     # Reals: 188
     # Integers: 26
     # Logicals: 5


 PROPerty Information

   1 Cleary Photoelectric P1
     Activation Obscuration (%/m)    3.24
     Alpha_c or L                    1.00
     Beta_c                         -0.80
     Alpha_e                         1.80
     Beta_e                         -1.00
     Smokeview ID                smoke_detector

   2 BS 9251
     Flow Rate (L/min)              49.05
     Particle Class              Water
     Smokeview ID                nozzle


 Cut-off Density and Temperature

    Minimum Temperature:   -10.0 C
    Maximum Temperature:  2726.8 C
    Minimum Density:  1.195E-01 kg/m3
    Maximum Density:  8.100E+00 kg/m3


 Device Information

   1 ID: Smoke detector LD1_00
     QUANTITY: CHAMBER OBSCURATION
     Species ID: SOOT
     Coordinates (X,Y,Z):    6.550000E+00    6.350000E+00    2.200000E+00
     TEMPORAL STATISTIC: TIME AVERAGE
  Property ID: Cleary Photoelectric P1
   2 ID: Smoke detector LD3_00
     QUANTITY: CHAMBER OBSCURATION
     Species ID: SOOT
     Coordinates (X,Y,Z):    4.900000E+00    3.100000E+00    2.200000E+00
     TEMPORAL STATISTIC: TIME AVERAGE
  Property ID: Cleary Photoelectric P1
   3 ID: CD1
     QUANTITY: DENSITY
     Species ID: CARBON DIOXIDE
     Coordinates (X,Y,Z):    4.100000E+00    3.900000E+00    1.700000E+00
     TEMPORAL STATISTIC: TIME AVERAGE
   4 ID: CD2
     QUANTITY: DENSITY
     Species ID: CARBON DIOXIDE
     Coordinates (X,Y,Z):    4.100000E+00    2.900000E+00    1.700000E+00
     TEMPORAL STATISTIC: TIME AVERAGE
   5 ID: CD3
     QUANTITY: DENSITY
     Species ID: CARBON DIOXIDE
     Coordinates (X,Y,Z):    4.100000E+00    2.300000E+00    1.700000E+00
     TEMPORAL STATISTIC: TIME AVERAGE
   6 ID: CD4
     QUANTITY: DENSITY
     Species ID: CARBON DIOXIDE
     Coordinates (X,Y,Z):    4.100000E+00    1.300000E+00    1.700000E+00
     TEMPORAL STATISTIC: TIME AVERAGE
   7 ID: CM1
     QUANTITY: DENSITY
     Species ID: CARBON MONOXIDE
     Coordinates (X,Y,Z):    4.100000E+00    3.900000E+00    1.700000E+00
     TEMPORAL STATISTIC: TIME AVERAGE
   8 ID: CM2
     QUANTITY: DENSITY
     Species ID: CARBON MONOXIDE
     Coordinates (X,Y,Z):    4.100000E+00    2.900000E+00    1.700000E+00
     TEMPORAL STATISTIC: TIME AVERAGE
   9 ID: CM3
     QUANTITY: DENSITY
     Species ID: CARBON MONOXIDE
     Coordinates (X,Y,Z):    4.100000E+00    2.300000E+00    1.700000E+00
     TEMPORAL STATISTIC: TIME AVERAGE
  10 ID: CM4
     QUANTITY: DENSITY
     Species ID: CARBON MONOXIDE
     Coordinates (X,Y,Z):    4.100000E+00    1.300000E+00    1.700000E+00
     TEMPORAL STATISTIC: TIME AVERAGE
  11 ID: HCN1
     QUANTITY: DENSITY
     Species ID: HYDROGEN CYANIDE
     Coordinates (X,Y,Z):    4.100000E+00    3.900000E+00    1.700000E+00
     TEMPORAL STATISTIC: TIME AVERAGE
  12 ID: HCN2
     QUANTITY: DENSITY
     Species ID: HYDROGEN CYANIDE
     Coordinates (X,Y,Z):    4.100000E+00    2.900000E+00    1.700000E+00
     TEMPORAL STATISTIC: TIME AVERAGE
  13 ID: HCN3
     QUANTITY: DENSITY
     Species ID: HYDROGEN CYANIDE
     Coordinates (X,Y,Z):    4.100000E+00    2.300000E+00    1.700000E+00
     TEMPORAL STATISTIC: TIME AVERAGE
  14 ID: HCN4
     QUANTITY: DENSITY
     Species ID: HYDROGEN CYANIDE
     Coordinates (X,Y,Z):    4.100000E+00    1.300000E+00    1.700000E+00
     TEMPORAL STATISTIC: TIME AVERAGE
  15 ID: VIS1
     QUANTITY: VISIBILITY
     Species ID: SOOT
     Coordinates (X,Y,Z):    4.100000E+00    3.900000E+00    1.700000E+00
     TEMPORAL STATISTIC: TIME AVERAGE
  16 ID: VIS2
     QUANTITY: VISIBILITY
     Species ID: SOOT
     Coordinates (X,Y,Z):    4.100000E+00    2.900000E+00    1.700000E+00
     TEMPORAL STATISTIC: TIME AVERAGE
  17 ID: VIS3
     QUANTITY: VISIBILITY
     Species ID: SOOT
     Coordinates (X,Y,Z):    4.100000E+00    2.300000E+00    1.700000E+00
     TEMPORAL STATISTIC: TIME AVERAGE
  18 ID: VIS4
     QUANTITY: VISIBILITY
     Species ID: SOOT
     Coordinates (X,Y,Z):    4.100000E+00    1.300000E+00    1.700000E+00
     TEMPORAL STATISTIC: TIME AVERAGE
  19 ID: TEMP1
     QUANTITY: TEMPERATURE
     Coordinates (X,Y,Z):    4.100000E+00    3.900000E+00    1.700000E+00
     TEMPORAL STATISTIC: TIME AVERAGE
  20 ID: TEMP2
     QUANTITY: TEMPERATURE
     Coordinates (X,Y,Z):    4.100000E+00    2.900000E+00    1.700000E+00
     TEMPORAL STATISTIC: TIME AVERAGE
  21 ID: TEMP3
     QUANTITY: TEMPERATURE
     Coordinates (X,Y,Z):    4.100000E+00    2.300000E+00    1.700000E+00
     TEMPORAL STATISTIC: TIME AVERAGE
  22 ID: TEMP4
     QUANTITY: TEMPERATURE
     Coordinates (X,Y,Z):    4.100000E+00    1.300000E+00    1.700000E+00
     TEMPORAL STATISTIC: TIME AVERAGE
  23 ID: RAD1
     QUANTITY: RADIATIVE HEAT FLUX
     Coordinates (X,Y,Z):    4.100000E+00    3.900000E+00    1.700000E+00
     TEMPORAL STATISTIC: TIME AVERAGE
     Particle Class: RESERVED TARGET PARTICLE
  24 ID: RAD2
     QUANTITY: RADIATIVE HEAT FLUX
     Coordinates (X,Y,Z):    4.100000E+00    2.900000E+00    1.700000E+00
     TEMPORAL STATISTIC: TIME AVERAGE
     Particle Class: RESERVED TARGET PARTICLE
  25 ID: RAD3
     QUANTITY: RADIATIVE HEAT FLUX
     Coordinates (X,Y,Z):    4.100000E+00    2.300000E+00    1.700000E+00
     TEMPORAL STATISTIC: TIME AVERAGE
     Particle Class: RESERVED TARGET PARTICLE
  26 ID: RAD4
     QUANTITY: RADIATIVE HEAT FLUX
     Coordinates (X,Y,Z):    4.100000E+00    1.300000E+00    1.700000E+00
     TEMPORAL STATISTIC: TIME AVERAGE
     Particle Class: RESERVED TARGET PARTICLE
  27 ID: WATER1
     QUANTITY: VOLUME FRACTION
     Species ID: WATER VAPOR
     Coordinates (X,Y,Z):    4.100000E+00    3.900000E+00    1.700000E+00
     TEMPORAL STATISTIC: TIME AVERAGE
  28 ID: WATER2
     QUANTITY: VOLUME FRACTION
     Species ID: WATER VAPOR
     Coordinates (X,Y,Z):    4.100000E+00    2.900000E+00    1.700000E+00
     TEMPORAL STATISTIC: TIME AVERAGE
  29 ID: WATER3
     QUANTITY: VOLUME FRACTION
     Species ID: WATER VAPOR
     Coordinates (X,Y,Z):    4.100000E+00    2.300000E+00    1.700000E+00
     TEMPORAL STATISTIC: TIME AVERAGE
  30 ID: WATER4
     QUANTITY: VOLUME FRACTION
     Species ID: WATER VAPOR
     Coordinates (X,Y,Z):    4.100000E+00    1.300000E+00    1.700000E+00
     TEMPORAL STATISTIC: TIME AVERAGE
  31 ID: Lounge_Fire_1_SPRK1
     QUANTITY: TIME
     Coordinates (X,Y,Z):    4.950000E+00    3.250000E+00    2.200000E+00
     TEMPORAL STATISTIC: TIME AVERAGE
  Property ID: BS 9251
  32 ID: Lounge_Fire_1_SPRK2
     QUANTITY: TIME
     Coordinates (X,Y,Z):    7.200000E+00    6.300000E+00    2.200000E+00
     TEMPORAL STATISTIC: TIME AVERAGE
  Property ID: BS 9251
  33 ID: CD5
     QUANTITY: DENSITY
     Species ID: CARBON DIOXIDE
     Coordinates (X,Y,Z):    4.400318E+00    3.256317E+00    1.700000E+00
     TEMPORAL STATISTIC: TIME AVERAGE
  34 ID: CD6
     QUANTITY: DENSITY
     Species ID: CARBON DIOXIDE
     Coordinates (X,Y,Z):    4.050212E+00    5.208780E-01    1.700000E+00
     TEMPORAL STATISTIC: TIME AVERAGE
  35 ID: CD7
     QUANTITY: DENSITY
     Species ID: CARBON DIOXIDE
     Coordinates (X,Y,Z):    6.400106E+00    3.285439E+00    1.700000E+00
     TEMPORAL STATISTIC: TIME AVERAGE
  36 ID: CD8
     QUANTITY: DENSITY
     Species ID: CARBON DIOXIDE
     Coordinates (X,Y,Z):    3.500000E+00    3.100000E+00    1.700000E+00
     TEMPORAL STATISTIC: TIME AVERAGE
  37 ID: CD9
     QUANTITY: DENSITY
     Species ID: CARBON DIOXIDE
     Coordinates (X,Y,Z):    5.599894E+00    2.714561E+00    1.700000E+00
     TEMPORAL STATISTIC: TIME AVERAGE
  38 ID: CD10
     QUANTITY: DENSITY
     Species ID: CARBON DIOXIDE
     Coordinates (X,Y,Z):    5.200000E+00    3.200000E+00    1.700000E+00
     TEMPORAL STATISTIC: TIME AVERAGE
  39 ID: CM5
     QUANTITY: DENSITY
     Species ID: CARBON MONOXIDE
     Coordinates (X,Y,Z):    4.400318E+00    3.256317E+00    1.700000E+00
     TEMPORAL STATISTIC: TIME AVERAGE
  40 ID: CM6
     QUANTITY: DENSITY
     Species ID: CARBON MONOXIDE
     Coordinates (X,Y,Z):    4.050212E+00    5.208780E-01    1.700000E+00
     TEMPORAL STATISTIC: TIME AVERAGE
  41 ID: CM7
     QUANTITY: DENSITY
     Species ID: CARBON MONOXIDE
     Coordinates (X,Y,Z):    6.400106E+00    3.285439E+00    1.700000E+00
     TEMPORAL STATISTIC: TIME AVERAGE
  42 ID: CM8
     QUANTITY: DENSITY
     Species ID: CARBON MONOXIDE
     Coordinates (X,Y,Z):    3.500000E+00    3.100000E+00    1.700000E+00
     TEMPORAL STATISTIC: TIME AVERAGE
  43 ID: CM9
     QUANTITY: DENSITY
     Species ID: CARBON MONOXIDE
     Coordinates (X,Y,Z):    5.599894E+00    2.714561E+00    1.700000E+00
     TEMPORAL STATISTIC: TIME AVERAGE
  44 ID: CM10
     QUANTITY: DENSITY
     Species ID: CARBON MONOXIDE
     Coordinates (X,Y,Z):    5.200000E+00    3.200000E+00    1.700000E+00
     TEMPORAL STATISTIC: TIME AVERAGE
  45 ID: HCN5
     QUANTITY: DENSITY
     Species ID: HYDROGEN CYANIDE
     Coordinates (X,Y,Z):    4.400318E+00    3.256317E+00    1.700000E+00
     TEMPORAL STATISTIC: TIME AVERAGE
  46 ID: HCN6
     QUANTITY: DENSITY
     Species ID: HYDROGEN CYANIDE
     Coordinates (X,Y,Z):    4.050212E+00    5.208780E-01    1.700000E+00
     TEMPORAL STATISTIC: TIME AVERAGE
  47 ID: HCN7
     QUANTITY: DENSITY
     Species ID: HYDROGEN CYANIDE
     Coordinates (X,Y,Z):    6.400106E+00    3.285439E+00    1.700000E+00
     TEMPORAL STATISTIC: TIME AVERAGE
  48 ID: HCN8
     QUANTITY: DENSITY
     Species ID: HYDROGEN CYANIDE
     Coordinates (X,Y,Z):    3.500000E+00    3.100000E+00    1.700000E+00
     TEMPORAL STATISTIC: TIME AVERAGE
  49 ID: HCN9
     QUANTITY: DENSITY
     Species ID: HYDROGEN CYANIDE
     Coordinates (X,Y,Z):    5.599894E+00    2.714561E+00    1.700000E+00
     TEMPORAL STATISTIC: TIME AVERAGE
  50 ID: HCN10
     QUANTITY: DENSITY
     Species ID: HYDROGEN CYANIDE
     Coordinates (X,Y,Z):    5.200000E+00    3.200000E+00    1.700000E+00
     TEMPORAL STATISTIC: TIME AVERAGE
  51 ID: VIS5
     QUANTITY: VISIBILITY
     Species ID: SOOT
     Coordinates (X,Y,Z):    4.400318E+00    3.256317E+00    1.700000E+00
     TEMPORAL STATISTIC: TIME AVERAGE
  52 ID: VIS6
     QUANTITY: VISIBILITY
     Species ID: SOOT
     Coordinates (X,Y,Z):    4.050212E+00    5.208780E-01    1.700000E+00
     TEMPORAL STATISTIC: TIME AVERAGE
  53 ID: VIS7
     QUANTITY: VISIBILITY
     Species ID: SOOT
     Coordinates (X,Y,Z):    6.400106E+00    3.285439E+00    1.700000E+00
     TEMPORAL STATISTIC: TIME AVERAGE
  54 ID: VIS9
     QUANTITY: VISIBILITY
     Species ID: SOOT
     Coordinates (X,Y,Z):    5.599894E+00    2.714561E+00    1.700000E+00
     TEMPORAL STATISTIC: TIME AVERAGE
  55 ID: VIS8
     QUANTITY: VISIBILITY
     Species ID: SOOT
     Coordinates (X,Y,Z):    3.500000E+00    3.100000E+00    1.700000E+00
     TEMPORAL STATISTIC: TIME AVERAGE
  56 ID: VIS10
     QUANTITY: VISIBILITY
     Species ID: SOOT
     Coordinates (X,Y,Z):    5.200000E+00    3.200000E+00    1.700000E+00
     TEMPORAL STATISTIC: TIME AVERAGE
  57 ID: TEMP5
     QUANTITY: TEMPERATURE
     Coordinates (X,Y,Z):    4.400318E+00    3.256317E+00    1.700000E+00
     TEMPORAL STATISTIC: TIME AVERAGE
  58 ID: TEMP6
     QUANTITY: TEMPERATURE
     Coordinates (X,Y,Z):    4.050212E+00    5.208780E-01    1.700000E+00
     TEMPORAL STATISTIC: TIME AVERAGE
  59 ID: TEMP7
     QUANTITY: TEMPERATURE
     Coordinates (X,Y,Z):    6.400106E+00    3.285439E+00    1.700000E+00
     TEMPORAL STATISTIC: TIME AVERAGE
  60 ID: TEMP8
     QUANTITY: TEMPERATURE
     Coordinates (X,Y,Z):    3.500000E+00    3.100000E+00    1.700000E+00
     TEMPORAL STATISTIC: TIME AVERAGE
  61 ID: TEMP9
     QUANTITY: TEMPERATURE
     Coordinates (X,Y,Z):    5.599894E+00    2.714561E+00    1.700000E+00
     TEMPORAL STATISTIC: TIME AVERAGE
  62 ID: TEMP10
     QUANTITY: TEMPERATURE
     Coordinates (X,Y,Z):    5.200000E+00    3.200000E+00    1.700000E+00
     TEMPORAL STATISTIC: TIME AVERAGE
  63 ID: RAD5
     QUANTITY: RADIATIVE HEAT FLUX
     Coordinates (X,Y,Z):    4.400318E+00    3.256317E+00    1.700000E+00
     TEMPORAL STATISTIC: TIME AVERAGE
     Particle Class: RESERVED TARGET PARTICLE
  64 ID: RAD6
     QUANTITY: RADIATIVE HEAT FLUX
     Coordinates (X,Y,Z):    4.050212E+00    5.208780E-01    1.700000E+00
     TEMPORAL STATISTIC: TIME AVERAGE
     Particle Class: RESERVED TARGET PARTICLE
  65 ID: RAD7
     QUANTITY: RADIATIVE HEAT FLUX
     Coordinates (X,Y,Z):    6.400106E+00    3.285439E+00    1.700000E+00
     TEMPORAL STATISTIC: TIME AVERAGE
  66 ID: RAD8
     QUANTITY: RADIATIVE HEAT FLUX
     Coordinates (X,Y,Z):    3.500000E+00    3.100000E+00    1.700000E+00
     TEMPORAL STATISTIC: TIME AVERAGE
     Particle Class: RESERVED TARGET PARTICLE
  67 ID: RAD9
     QUANTITY: RADIATIVE HEAT FLUX
     Coordinates (X,Y,Z):    5.599894E+00    2.714561E+00    1.700000E+00
     TEMPORAL STATISTIC: TIME AVERAGE
     Particle Class: RESERVED TARGET PARTICLE
  68 ID: RAD10
     QUANTITY: RADIATIVE HEAT FLUX
     Coordinates (X,Y,Z):    5.200000E+00    3.200000E+00    1.700000E+00
     TEMPORAL STATISTIC: TIME AVERAGE
     Particle Class: RESERVED TARGET PARTICLE
  69 ID: WATER5
     QUANTITY: VOLUME FRACTION
     Species ID: WATER VAPOR
     Coordinates (X,Y,Z):    4.400318E+00    3.256317E+00    1.700000E+00
     TEMPORAL STATISTIC: TIME AVERAGE
  70 ID: WATER6
     QUANTITY: VOLUME FRACTION
     Species ID: WATER VAPOR
     Coordinates (X,Y,Z):    4.050212E+00    5.208780E-01    1.700000E+00
     TEMPORAL STATISTIC: TIME AVERAGE
  71 ID: WATER7
     QUANTITY: VOLUME FRACTION
     Species ID: WATER VAPOR
     Coordinates (X,Y,Z):    6.400106E+00    3.285439E+00    1.700000E+00
     TEMPORAL STATISTIC: TIME AVERAGE
  72 ID: WATER8
     QUANTITY: VOLUME FRACTION
     Species ID: WATER VAPOR
     Coordinates (X,Y,Z):    3.500000E+00    3.100000E+00    1.700000E+00
     TEMPORAL STATISTIC: TIME AVERAGE
  73 ID: WATER9
     QUANTITY: VOLUME FRACTION
     Species ID: WATER VAPOR
     Coordinates (X,Y,Z):    5.599894E+00    2.714561E+00    1.700000E+00
     TEMPORAL STATISTIC: TIME AVERAGE
  74 ID: WATER10
     QUANTITY: VOLUME FRACTION
     Species ID: WATER VAPOR
     Coordinates (X,Y,Z):    4.850000E+00    3.150000E+00    1.700000E+00
     TEMPORAL STATISTIC: TIME AVERAGE


 Slice File Information, Mesh     1

   1 Nodes:   0  60   0  40  17  17, Quantity: TEMPERATURE
   2 Nodes:   0  60   0  40  17  17, Quantity: SOOT VISIBILITY
   3 Nodes:  20  20   0  40   0  23, Quantity: TEMPERATURE
   4 Nodes:  20  20   0  40   0  23, Quantity: SOOT VISIBILITY
   5 Nodes:   0  60  20  20   0  23, Quantity: TEMPERATURE
   6 Nodes:   0  60  20  20   0  23, Quantity: SOOT VISIBILITY


 Radiation Model Information

   Number of control angles  104
   Time step increment         3
   Angle increment             5
   Theta band N_phi   Solid angle
     1:        4     0.120
     2:       12     0.114
     3:       16     0.127
     4:       20     0.120
     5:       20     0.120
     6:       16     0.127
     7:       12     0.114
     8:        4     0.120
   Using gray gas absorption.
   Mean beam length  1.000E-01 m
 
 

 Run Time Diagnostics

       Time Step       1   September 14, 2023  15:28:25
       Step Size:    0.104E+00 s, Total Time:       0.10 s
       Pressure Iterations: 1
       Maximum Velocity Error:  0.47E-02 on Mesh 3 at (39,40,18)
       Maximum Pressure Error:  0.48E-05 on Mesh 1 at (2,22,7)
       ---------------------------------------------------------------
       Mesh    1
       Max CFL number:  0.26E-01 at (34,12,10)
       Max divergence:  0.19E-05 at (11,27,2)
       Min divergence: -0.18E-05 at (37,39,22)
       Max VN number:   0.35E-01 at (21,29,2)
       No. of Lagrangian Particles:  9
       Radiation Loss to Boundaries:        -0.002 kW
       Mesh    2
       Max CFL number:  0.26E-01 at (17,11,3)
       Max divergence:  0.23E-05 at (46,34,3)
       Min divergence: -0.19E-05 at (56,6,22)
       Max VN number:   0.45E-01 at (15,42,5)
       Mesh    3
       Max CFL number:  0.25E-01 at (30,7,10)
       Max divergence:  0.17E-05 at (5,32,2)
       Min divergence: -0.17E-05 at (12,18,22)
       Max VN number:   0.40E-01 at (18,6,13)
       No. of Lagrangian Particles:  1
       Radiation Loss to Boundaries:        -0.001 kW
       Mesh    4
       Max CFL number:  0.28E-01 at (10,9,10)
       Max divergence:  0.18E-05 at (12,22,2)
       Min divergence: -0.19E-05 at (21,6,22)
       Max VN number:   0.34E-01 at (22,3,11)
 
       Time Step       2   September 14, 2023  15:28:26
       Step Size:    0.104E+00 s, Total Time:       0.21 s
       Pressure Iterations: 1
       Maximum Velocity Error:  0.19E-02 on Mesh 3 at (24,40,7)
       Maximum Pressure Error:  0.33E-05 on Mesh 3 at (5,1,9)
       ---------------------------------------------------------------
       Mesh    1
       Max CFL number:  0.26E-01 at (34,12,10)
       Max divergence:  0.19E-05 at (11,27,2)
       Min divergence: -0.18E-05 at (37,39,22)
       Max VN number:   0.36E-01 at (57,22,4)
       No. of Lagrangian Particles:  9
       Radiation Loss to Boundaries:        -0.002 kW
       Mesh    2
       Max CFL number:  0.26E-01 at (17,11,3)
       Max divergence:  0.23E-05 at (46,34,3)
       Min divergence: -0.19E-05 at (56,6,22)
       Max VN number:   0.37E-01 at (13,40,14)
       Mesh    3
       Max CFL number:  0.25E-01 at (30,7,10)
       Max divergence:  0.16E-05 at (5,32,2)
       Min divergence: -0.17E-05 at (12,18,22)
       Max VN number:   0.35E-01 at (39,18,21)
       No. of Lagrangian Particles:  1
       Radiation Loss to Boundaries:        -0.001 kW
       Mesh    4
       Max CFL number:  0.27E-01 at (10,9,10)
       Max divergence:  0.18E-05 at (9,39,2)
       Min divergence: -0.19E-05 at (21,6,22)
       Max VN number:   0.34E-01 at (39,34,9)
 
       Time Step       3   September 14, 2023  15:28:26
       Step Size:    0.104E+00 s, Total Time:       0.31 s
       Pressure Iterations: 1
       Maximum Velocity Error:  0.26E-02 on Mesh 1 at (33,40,14)
       Maximum Pressure Error:  0.22E-05 on Mesh 1 at (2,1,15)
       ---------------------------------------------------------------
       Mesh    1
       Max CFL number:  0.25E-01 at (34,12,10)
       Max divergence:  0.19E-05 at (11,27,2)
       Min divergence: -0.17E-05 at (24,39,22)
       Max VN number:   0.36E-01 at (57,22,4)
       No. of Lagrangian Particles:  9
       Radiation Loss to Boundaries:        -0.001 kW
       Mesh    2
       Max CFL number:  0.25E-01 at (57,24,9)
       Max divergence:  0.23E-05 at (46,34,3)
       Min divergence: -0.19E-05 at (56,6,22)
       Max VN number:   0.36E-01 at (13,40,14)
       Mesh    3
       Max CFL number:  0.25E-01 at (30,7,10)
       Max divergence:  0.16E-05 at (5,32,2)
       Min divergence: -0.17E-05 at (26,5,22)
       Max VN number:   0.36E-01 at (39,18,21)
       No. of Lagrangian Particles:  1
       Mesh    4
       Max CFL number:  0.27E-01 at (10,9,10)
       Max divergence:  0.18E-05 at (12,22,2)
       Min divergence: -0.19E-05 at (21,6,22)
       Max VN number:   0.34E-01 at (39,34,9)
 
       Time Step       4   September 14, 2023  15:28:26
       Step Size:    0.104E+00 s, Total Time:       0.42 s
       Pressure Iterations: 1
       Maximum Velocity Error:  0.17E-02 on Mesh 3 at (39,40,18)
       Maximum Pressure Error:  0.10E-05 on Mesh 1 at (2,1,16)
       ---------------------------------------------------------------
       Mesh    1
       Max CFL number:  0.25E-01 at (34,12,10)
       Max divergence:  0.19E-05 at (11,27,2)
       Min divergence: -0.17E-05 at (24,39,22)
       Max VN number:   0.35E-01 at (57,22,4)
       No. of Lagrangian Particles:  9
       Radiation Loss to Boundaries:        -0.001 kW
       Mesh    2
       Max CFL number:  0.25E-01 at (57,24,9)
       Max divergence:  0.23E-05 at (46,34,3)
       Min divergence: -0.19E-05 at (56,6,22)
       Max VN number:   0.36E-01 at (13,40,14)
       Mesh    3
       Max CFL number:  0.25E-01 at (30,7,10)
       Max divergence:  0.16E-05 at (5,32,2)
       Min divergence: -0.17E-05 at (26,5,22)
       Max VN number:   0.36E-01 at (39,18,21)
       No. of Lagrangian Particles:  1
       Mesh    4
       Max CFL number:  0.27E-01 at (10,9,10)
       Max divergence:  0.18E-05 at (12,22,2)
       Min divergence: -0.19E-05 at (21,6,22)
       Max VN number:   0.34E-01 at (39,34,9)
 
       Time Step       5   September 14, 2023  15:28:27
       Step Size:    0.104E+00 s, Total Time:       0.52 s
       Pressure Iterations: 1
       Maximum Velocity Error:  0.11E-02 on Mesh 1 at (33,40,23)
       Maximum Pressure Error:  0.55E-06 on Mesh 1 at (47,1,5)
       ---------------------------------------------------------------
       Mesh    1
       Max CFL number:  0.25E-01 at (34,12,10)
       Max divergence:  0.19E-05 at (11,27,2)
       Min divergence: -0.17E-05 at (24,39,22)
       Max VN number:   0.35E-01 at (57,22,4)
       No. of Lagrangian Particles:  9
       Radiation Loss to Boundaries:        -0.001 kW
       Mesh    2
       Max CFL number:  0.25E-01 at (24,25,3)
       Max divergence:  0.23E-05 at (46,34,3)
       Min divergence: -0.19E-05 at (56,6,22)
       Max VN number:   0.36E-01 at (13,40,14)
       Mesh    3
       Max CFL number:  0.25E-01 at (30,7,10)
       Max divergence:  0.16E-05 at (5,32,2)
       Min divergence: -0.17E-05 at (12,18,22)
       Max VN number:   0.35E-01 at (39,18,21)
       No. of Lagrangian Particles:  1
       Mesh    4
       Max CFL number:  0.27E-01 at (10,9,10)
       Max divergence:  0.18E-05 at (12,22,2)
       Min divergence: -0.19E-05 at (21,6,22)
       Max VN number:   0.34E-01 at (39,34,9)
 
       Time Step       6   September 14, 2023  15:28:27
       Step Size:    0.104E+00 s, Total Time:       0.63 s
       Pressure Iterations: 1
       Maximum Velocity Error:  0.75E-03 on Mesh 3 at (8,40,2)
       Maximum Pressure Error:  0.51E-06 on Mesh 1 at (47,1,4)
       ---------------------------------------------------------------
       Mesh    1
       Max CFL number:  0.25E-01 at (34,12,10)
       Max divergence:  0.19E-05 at (11,27,2)
       Min divergence: -0.17E-05 at (24,39,22)
       Max VN number:   0.35E-01 at (57,22,4)
       No. of Lagrangian Particles:  9
       Mesh    2
       Max CFL number:  0.25E-01 at (24,25,3)
       Max divergence:  0.23E-05 at (46,34,3)
       Min divergence: -0.19E-05 at (56,6,22)
       Max VN number:   0.36E-01 at (13,40,14)
       Mesh    3
       Max CFL number:  0.25E-01 at (30,7,10)
       Max divergence:  0.17E-05 at (31,36,2)
       Min divergence: -0.17E-05 at (26,5,22)
       Max VN number:   0.35E-01 at (39,18,21)
       No. of Lagrangian Particles:  1
       Mesh    4
       Max CFL number:  0.27E-01 at (10,9,10)
       Max divergence:  0.18E-05 at (12,22,2)
       Min divergence: -0.19E-05 at (21,6,22)
       Max VN number:   0.34E-01 at (39,34,9)
 
       Time Step       7   September 14, 2023  15:28:28
       Step Size:    0.104E+00 s, Total Time:       0.73 s
       Pressure Iterations: 1
       Maximum Velocity Error:  0.53E-03 on Mesh 3 at (10,40,1)
       Maximum Pressure Error:  0.29E-06 on Mesh 4 at (38,40,2)
       ---------------------------------------------------------------
       Mesh    1
       Max CFL number:  0.25E-01 at (43,29,6)
       Max divergence:  0.19E-05 at (11,27,2)
       Min divergence: -0.17E-05 at (24,39,22)
       Max VN number:   0.35E-01 at (57,22,4)
       No. of Lagrangian Particles:  9
       Mesh    2
       Max CFL number:  0.25E-01 at (24,25,3)
       Max divergence:  0.23E-05 at (46,34,3)
       Min divergence: -0.19E-05 at (56,6,22)
       Max VN number:   0.36E-01 at (13,40,14)
       Mesh    3
       Max CFL number:  0.25E-01 at (30,7,10)
       Max divergence:  0.17E-05 at (31,36,2)
       Min divergence: -0.17E-05 at (26,5,22)
       Max VN number:   0.35E-01 at (39,18,21)
       No. of Lagrangian Particles:  1
       Mesh    4
       Max CFL number:  0.27E-01 at (10,9,10)
       Max divergence:  0.18E-05 at (12,22,2)
       Min divergence: -0.19E-05 at (21,6,22)
       Max VN number:   0.34E-01 at (39,34,9)
 
       Time Step       8   September 14, 2023  15:28:28
       Step Size:    0.104E+00 s, Total Time:       0.83 s
       Pressure Iterations: 1
       Maximum Velocity Error:  0.50E-03 on Mesh 3 at (39,40,1)
       Maximum Pressure Error:  0.25E-06 on Mesh 1 at (49,1,17)
       ---------------------------------------------------------------
       Mesh    1
       Max CFL number:  0.25E-01 at (43,29,6)
       Max divergence:  0.19E-05 at (11,27,2)
       Min divergence: -0.17E-05 at (24,39,22)
       Max VN number:   0.35E-01 at (57,22,4)
       No. of Lagrangian Particles:  9
       Mesh    2
       Max CFL number:  0.25E-01 at (24,25,3)
       Max divergence:  0.23E-05 at (46,34,3)
       Min divergence: -0.19E-05 at (56,6,22)
       Max VN number:   0.36E-01 at (13,40,14)
       Mesh    3
       Max CFL number:  0.25E-01 at (30,7,10)
       Max divergence:  0.17E-05 at (31,36,2)
       Min divergence: -0.17E-05 at (26,5,22)
       Max VN number:   0.35E-01 at (39,18,21)
       No. of Lagrangian Particles:  1
       Mesh    4
       Max CFL number:  0.27E-01 at (10,9,10)
       Max divergence:  0.18E-05 at (12,22,2)
       Min divergence: -0.19E-05 at (21,6,22)
       Max VN number:   0.34E-01 at (39,34,9)
 
       Time Step       9   September 14, 2023  15:28:28
       Step Size:    0.104E+00 s, Total Time:       0.94 s
       Pressure Iterations: 1
       Maximum Velocity Error:  0.46E-03 on Mesh 3 at (37,40,15)
       Maximum Pressure Error:  0.20E-06 on Mesh 1 at (49,1,16)
       ---------------------------------------------------------------
       Mesh    1
       Max CFL number:  0.25E-01 at (43,29,6)
       Max divergence:  0.19E-05 at (11,27,2)
       Min divergence: -0.17E-05 at (24,39,22)
       Max VN number:   0.35E-01 at (57,22,4)
       No. of Lagrangian Particles:  9
       Mesh    2
       Max CFL number:  0.25E-01 at (24,25,3)
       Max divergence:  0.23E-05 at (46,34,3)
       Min divergence: -0.19E-05 at (56,6,22)
       Max VN number:   0.36E-01 at (13,40,14)
       Mesh    3
       Max CFL number:  0.25E-01 at (30,7,10)
       Max divergence:  0.17E-05 at (31,36,2)
       Min divergence: -0.17E-05 at (26,5,22)
       Max VN number:   0.35E-01 at (39,18,21)
       No. of Lagrangian Particles:  1
       Mesh    4
       Max CFL number:  0.27E-01 at (10,9,10)
       Max divergence:  0.18E-05 at (12,22,2)
       Min divergence: -0.18E-05 at (21,6,22)
       Max VN number:   0.34E-01 at (39,34,9)
 
       Time Step      10   September 14, 2023  15:28:29
       Step Size:    0.104E+00 s, Total Time:       1.04 s
       Pressure Iterations: 1
       Maximum Velocity Error:  0.40E-03 on Mesh 1 at (33,40,23)
       Maximum Pressure Error:  0.18E-06 on Mesh 1 at (47,1,4)
       ---------------------------------------------------------------
       Mesh    1
       Max CFL number:  0.25E-01 at (43,29,6)
       Max divergence:  0.18E-05 at (11,27,2)
       Min divergence: -0.17E-05 at (24,39,22)
       Max VN number:   0.35E-01 at (57,22,4)
       No. of Lagrangian Particles:  9
       Mesh    2
       Max CFL number:  0.25E-01 at (24,25,3)
       Max divergence:  0.23E-05 at (46,34,3)
       Min divergence: -0.19E-05 at (56,6,22)
       Max VN number:   0.35E-01 at (13,40,14)
       Mesh    3
       Max CFL number:  0.24E-01 at (30,7,10)
       Max divergence:  0.17E-05 at (31,36,2)
       Min divergence: -0.17E-05 at (26,5,22)
       Max VN number:   0.35E-01 at (39,18,21)
       No. of Lagrangian Particles:  1
       Mesh    4
       Max CFL number:  0.27E-01 at (10,9,10)
       Max divergence:  0.18E-05 at (12,22,2)
       Min divergence: -0.18E-05 at (21,6,22)
       Max VN number:   0.33E-01 at (39,34,9)
 
       Time Step      20   September 14, 2023  15:28:33
       Step Size:    0.104E+00 s, Total Time:       2.09 s
       Pressure Iterations: 1
       Maximum Velocity Error:  0.13E-03 on Mesh 3 at (39,40,11)
       Maximum Pressure Error:  0.70E-07 on Mesh 1 at (48,1,23)
       ---------------------------------------------------------------
       Mesh    1
       Max CFL number:  0.24E-01 at (43,29,6)
       Max divergence:  0.18E-05 at (11,27,2)
       Min divergence: -0.17E-05 at (16,21,22)
       Max VN number:   0.33E-01 at (57,22,4)
       No. of Lagrangian Particles:  9
       Mesh    2
       Max CFL number:  0.24E-01 at (24,25,3)
       Max divergence:  0.22E-05 at (46,34,3)
       Min divergence: -0.18E-05 at (7,31,22)
       Max VN number:   0.34E-01 at (13,40,14)
       Mesh    3
       Max CFL number:  0.23E-01 at (28,19,13)
       Max divergence:  0.17E-05 at (31,36,2)
       Min divergence: -0.16E-05 at (36,16,22)
       Max VN number:   0.34E-01 at (39,18,21)
       No. of Lagrangian Particles:  1
       Mesh    4
       Max CFL number:  0.26E-01 at (10,9,10)
       Max divergence:  0.18E-05 at (9,39,2)
       Min divergence: -0.18E-05 at (21,6,22)
       Max VN number:   0.33E-01 at (39,34,9)
 
       Time Step      30   September 14, 2023  15:28:37
       Step Size:    0.104E+00 s, Total Time:       3.13 s
       Pressure Iterations: 1
       Maximum Velocity Error:  0.11E-03 on Mesh 1 at (60,1,1)
       Maximum Pressure Error:  0.44E-07 on Mesh 1 at (40,1,5)
       ---------------------------------------------------------------
       Mesh    1
       Max CFL number:  0.23E-01 at (43,29,6)
       Max divergence:  0.17E-05 at (11,27,2)
       Min divergence: -0.17E-05 at (16,21,22)
       Max VN number:   0.34E-01 at (31,12,8)
       No. of Lagrangian Particles:  9
       Mesh    2
       Max CFL number:  0.23E-01 at (27,36,13)
       Max divergence:  0.22E-05 at (46,34,3)
       Min divergence: -0.18E-05 at (7,31,22)
       Max VN number:   0.32E-01 at (13,40,14)
       Mesh    3
       Max CFL number:  0.23E-01 at (9,18,21)
       Max divergence:  0.17E-05 at (31,36,2)
       Min divergence: -0.16E-05 at (36,16,22)
       Max VN number:   0.32E-01 at (39,18,21)
       No. of Lagrangian Particles:  1
       Mesh    4
       Max CFL number:  0.25E-01 at (10,9,10)
       Max divergence:  0.18E-05 at (9,39,2)
       Min divergence: -0.17E-05 at (21,6,22)
       Max VN number:   0.32E-01 at (39,34,9)
 
       Time Step      40   September 14, 2023  15:28:41
       Step Size:    0.104E+00 s, Total Time:       4.17 s
       Pressure Iterations: 1
       Maximum Velocity Error:  0.83E-04 on Mesh 1 at (60,1,1)
       Maximum Pressure Error:  0.28E-07 on Mesh 1 at (1,1,1)
       ---------------------------------------------------------------
       Mesh    1
       Max CFL number:  0.22E-01 at (46,30,7)
       Max divergence:  0.16E-05 at (11,27,2)
       Min divergence: -0.16E-05 at (16,21,22)
       Max VN number:   0.34E-01 at (31,12,8)
       No. of Lagrangian Particles:  9
       Mesh    2
       Max CFL number:  0.22E-01 at (27,36,13)
       Max divergence:  0.21E-05 at (46,34,3)
       Min divergence: -0.18E-05 at (7,31,22)
       Max VN number:   0.31E-01 at (13,40,14)
       Mesh    3
       Max CFL number:  0.22E-01 at (9,18,21)
       Max divergence:  0.16E-05 at (31,36,2)
       Min divergence: -0.15E-05 at (36,16,22)
       Max VN number:   0.31E-01 at (39,18,21)
       No. of Lagrangian Particles:  1
       Mesh    4
       Max CFL number:  0.24E-01 at (10,9,10)
       Max divergence:  0.18E-05 at (9,39,2)
       Min divergence: -0.16E-05 at (30,22,22)
       Max VN number:   0.31E-01 at (39,34,9)
 
       Time Step      50   September 14, 2023  15:28:45
       Step Size:    0.104E+00 s, Total Time:       5.21 s
       Pressure Iterations: 1
       Maximum Velocity Error:  0.65E-04 on Mesh 1 at (60,1,1)
       Maximum Pressure Error:  0.30E-07 on Mesh 1 at (52,1,20)
       ---------------------------------------------------------------
       Mesh    1
       Max CFL number:  0.22E-01 at (46,30,7)
       Max divergence:  0.16E-05 at (21,35,2)
       Min divergence: -0.16E-05 at (16,21,22)
       Max VN number:   0.34E-01 at (31,12,8)
       No. of Lagrangian Particles:  9
       Mesh    2
       Max CFL number:  0.22E-01 at (27,36,13)
       Max divergence:  0.19E-05 at (46,34,3)
       Min divergence: -0.17E-05 at (7,31,22)
       Max VN number:   0.30E-01 at (13,40,14)
       Mesh    3
       Max CFL number:  0.22E-01 at (9,18,21)
       Max divergence:  0.16E-05 at (31,36,2)
       Min divergence: -0.15E-05 at (17,10,22)
       Max VN number:   0.29E-01 at (39,18,21)
       No. of Lagrangian Particles:  1
       Mesh    4
       Max CFL number:  0.23E-01 at (10,9,10)
       Max divergence:  0.18E-05 at (9,39,2)
       Min divergence: -0.16E-05 at (30,22,22)
       Max VN number:   0.30E-01 at (39,34,9)
 
       Time Step      60   September 14, 2023  15:28:49
       Step Size:    0.104E+00 s, Total Time:       6.26 s
       Pressure Iterations: 1
       Maximum Velocity Error:  0.71E-04 on Mesh 1 at (60,1,23)
       Maximum Pressure Error:  0.45E-07 on Mesh 1 at (52,1,20)
       ---------------------------------------------------------------
       Mesh    1
       Max CFL number:  0.21E-01 at (46,30,7)
       Max divergence:  0.15E-05 at (21,35,2)
       Min divergence: -0.16E-05 at (16,21,22)
       Max VN number:   0.34E-01 at (31,12,8)
       No. of Lagrangian Particles:  9
       Mesh    2
       Max CFL number:  0.21E-01 at (27,36,13)
       Max divergence:  0.18E-05 at (46,34,3)
       Min divergence: -0.17E-05 at (7,31,22)
       Max VN number:   0.29E-01 at (15,3,10)
       Mesh    3
       Max CFL number:  0.21E-01 at (9,18,21)
       Max divergence:  0.16E-05 at (31,36,2)
       Min divergence: -0.15E-05 at (17,10,22)
       Max VN number:   0.28E-01 at (39,16,21)
       No. of Lagrangian Particles:  1
       Mesh    4
       Max CFL number:  0.23E-01 at (10,9,10)
       Max divergence:  0.17E-05 at (9,39,2)
       Min divergence: -0.15E-05 at (30,22,22)
       Max VN number:   0.29E-01 at (39,34,9)
 
       Time Step      70   September 14, 2023  15:28:53
       Step Size:    0.104E+00 s, Total Time:       7.30 s
       Pressure Iterations: 1
       Maximum Velocity Error:  0.68E-04 on Mesh 1 at (60,1,23)
       Maximum Pressure Error:  0.41E-07 on Mesh 3 at (19,1,4)
       ---------------------------------------------------------------
       Mesh    1
       Max CFL number:  0.21E-01 at (46,30,7)
       Max divergence:  0.15E-05 at (21,35,2)
       Min divergence: -0.16E-05 at (54,16,22)
       Max VN number:   0.34E-01 at (31,12,8)
       No. of Lagrangian Particles:  9
       Mesh    2
       Max CFL number:  0.20E-01 at (27,36,13)
       Max divergence:  0.17E-05 at (46,34,3)
       Min divergence: -0.16E-05 at (31,35,22)
       Max VN number:   0.28E-01 at (15,3,10)
       Mesh    3
       Max CFL number:  0.20E-01 at (9,18,21)
       Max divergence:  0.15E-05 at (31,36,2)
       Min divergence: -0.15E-05 at (17,10,22)
       Max VN number:   0.27E-01 at (39,16,21)
       No. of Lagrangian Particles:  1
       Mesh    4
       Max CFL number:  0.22E-01 at (10,9,10)
       Max divergence:  0.17E-05 at (9,39,2)
       Min divergence: -0.15E-05 at (30,22,22)
       Max VN number:   0.28E-01 at (39,34,9)
 
       Time Step      80   September 14, 2023  15:28:57
       Step Size:    0.104E+00 s, Total Time:       8.34 s
       Pressure Iterations: 1
       Maximum Velocity Error:  0.37E-04 on Mesh 1 at (60,1,1)
       Maximum Pressure Error:  0.21E-07 on Mesh 1 at (40,1,5)
       ---------------------------------------------------------------
       Mesh    1
       Max CFL number:  0.20E-01 at (46,30,7)
       Max divergence:  0.15E-05 at (21,35,2)
       Min divergence: -0.15E-05 at (54,16,22)
       Max VN number:   0.34E-01 at (31,12,8)
       No. of Lagrangian Particles:  9
       Mesh    2
       Max CFL number:  0.20E-01 at (53,27,20)
       Max divergence:  0.16E-05 at (46,34,3)
       Min divergence: -0.16E-05 at (31,35,22)
       Max VN number:   0.28E-01 at (15,3,10)
       Mesh    3
       Max CFL number:  0.20E-01 at (9,18,21)
       Max divergence:  0.15E-05 at (31,36,2)
       Min divergence: -0.15E-05 at (17,10,22)
       Max VN number:   0.26E-01 at (39,16,21)
       No. of Lagrangian Particles:  1
       Mesh    4
       Max CFL number:  0.21E-01 at (7,9,16)
       Max divergence:  0.17E-05 at (9,39,2)
       Min divergence: -0.15E-05 at (30,22,22)
       Max VN number:   0.27E-01 at (39,34,9)
 
       Time Step      90   September 14, 2023  15:29:02
       Step Size:    0.104E+00 s, Total Time:       9.38 s
       Pressure Iterations: 1
       Maximum Velocity Error:  0.46E-04 on Mesh 1 at (60,1,1)
       Maximum Pressure Error:  0.25E-07 on Mesh 1 at (52,1,20)
       ---------------------------------------------------------------
       Mesh    1
       Max CFL number:  0.20E-01 at (46,30,7)
       Max divergence:  0.14E-05 at (21,35,2)
       Min divergence: -0.15E-05 at (54,16,22)
       Max VN number:   0.33E-01 at (31,12,8)
       No. of Lagrangian Particles:  9
       Mesh    2
       Max CFL number:  0.20E-01 at (53,27,20)
       Max divergence:  0.15E-05 at (46,34,3)
       Min divergence: -0.16E-05 at (31,35,22)
       Max VN number:   0.28E-01 at (15,3,10)
       Mesh    3
       Max CFL number:  0.19E-01 at (9,18,21)
       Max divergence:  0.14E-05 at (35,16,2)
       Min divergence: -0.15E-05 at (17,10,22)
       Max VN number:   0.25E-01 at (39,16,21)
       No. of Lagrangian Particles:  1
       Mesh    4
       Max CFL number:  0.20E-01 at (7,9,16)
       Max divergence:  0.17E-05 at (9,39,2)
       Min divergence: -0.14E-05 at (30,22,22)
       Max VN number:   0.26E-01 at (39,34,9)
 
       Time Step     100   September 14, 2023  15:29:06
       Step Size:    0.104E+00 s, Total Time:      10.43 s
       Pressure Iterations: 1
       Maximum Velocity Error:  0.56E-04 on Mesh 1 at (60,1,1)
       Maximum Pressure Error:  0.49E-07 on Mesh 3 at (37,1,13)
       ---------------------------------------------------------------
       Mesh    1
       Max CFL number:  0.19E-01 at (46,30,7)
       Max divergence:  0.14E-05 at (21,35,2)
       Min divergence: -0.15E-05 at (54,16,22)
       Max VN number:   0.33E-01 at (31,12,8)
       No. of Lagrangian Particles:  9
       Mesh    2
       Max CFL number:  0.19E-01 at (53,27,20)
       Max divergence:  0.14E-05 at (41,23,3)
       Min divergence: -0.16E-05 at (31,35,22)
       Max VN number:   0.27E-01 at (15,3,10)
       Mesh    3
       Max CFL number:  0.18E-01 at (9,18,21)
       Max divergence:  0.14E-05 at (35,16,2)
       Min divergence: -0.15E-05 at (17,10,22)
       Max VN number:   0.25E-01 at (18,27,23)
       No. of Lagrangian Particles:  1
       Mesh    4
       Max CFL number:  0.20E-01 at (7,9,16)
       Max divergence:  0.17E-05 at (9,39,2)
       Min divergence: -0.14E-05 at (24,16,22)
       Max VN number:   0.26E-01 at (39,34,9)
 
       Time Step     200   September 14, 2023  15:29:50
       Step Size:    0.104E+00 s, Total Time:      20.85 s
       Pressure Iterations: 1
       Maximum Velocity Error:  0.35E-04 on Mesh 1 at (60,1,22)
       Maximum Pressure Error:  0.39E-07 on Mesh 1 at (52,1,21)
       ---------------------------------------------------------------
       Mesh    1
       Max CFL number:  0.16E-01 at (51,26,21)
       Max divergence:  0.11E-05 at (47,27,2)
       Min divergence: -0.12E-05 at (11,39,22)
       Max VN number:   0.28E-01 at (23,26,7)
       No. of Lagrangian Particles:  9
       Mesh    2
       Max CFL number:  0.15E-01 at (57,37,17)
       Max divergence:  0.11E-05 at (56,45,2)
       Min divergence: -0.13E-05 at (31,35,22)
       Max VN number:   0.22E-01 at (53,40,3)
       Mesh    3
       Max CFL number:  0.15E-01 at (8,6,12)
       Max divergence:  0.12E-05 at (35,16,2)
       Min divergence: -0.12E-05 at (17,10,22)
       Max VN number:   0.23E-01 at (18,4,18)
       No. of Lagrangian Particles:  1
       Mesh    4
       Max CFL number:  0.15E-01 at (4,38,3)
       Max divergence:  0.13E-05 at (9,39,2)
       Min divergence: -0.12E-05 at (24,16,22)
       Max VN number:   0.25E-01 at (22,39,11)
 
       Time Step     300   September 14, 2023  15:30:39
       Step Size:    0.104E+00 s, Total Time:      31.28 s
       Pressure Iterations: 1
       Maximum Velocity Error:  0.23E-04 on Mesh 1 at (60,1,4)
       Maximum Pressure Error:  0.26E-07 on Mesh 3 at (35,1,18)
       ---------------------------------------------------------------
       Mesh    1
       Max CFL number:  0.13E-01 at (23,27,8)
       Max divergence:  0.10E-05 at (47,27,2)
       Min divergence: -0.95E-06 at (11,39,22)
       Max VN number:   0.23E-01 at (23,26,7)
       No. of Lagrangian Particles:  9
       Mesh    2
       Max CFL number:  0.12E-01 at (49,23,12)
       Max divergence:  0.87E-06 at (52,36,3)
       Min divergence: -0.10E-05 at (31,35,22)
       Max VN number:   0.21E-01 at (53,40,3)
       Mesh    3
       Max CFL number:  0.13E-01 at (8,6,12)
       Max divergence:  0.90E-06 at (35,16,2)
       Min divergence: -0.91E-06 at (17,37,22)
       Max VN number:   0.19E-01 at (18,4,18)
       No. of Lagrangian Particles:  1
       Mesh    4
       Max CFL number:  0.13E-01 at (37,13,21)
       Max divergence:  0.97E-06 at (21,23,2)
       Min divergence: -0.88E-06 at (24,16,22)
       Max VN number:   0.22E-01 at (22,39,11)
 
